sisyphean-power-and-light/network/results/scenarios/extreme_weather/pvsystems.dss
! Scenario PV Systems

New PVSystem.pv_XFMR-000001 bus1=bus_XFMR-000001_sec phases=1 kV=0.24 kVA=129.7 Pmpp=129.7 irradiance=1 pf=1
New PVSystem.pv_XFMR-000003 bus1=bus_XFMR-000003_sec phases=1 kV=0.24 kVA=92.9 Pmpp=92.9 irradiance=1 pf=1
New PVSystem.pv_XFMR-000005 bus1=bus_XFMR-000005_sec phases=1 kV=0.24 kVA=73.0 Pmpp=73.0 irradiance=1 pf=1
New PVSystem.pv_XFMR-000006 bus1=bus_XFMR-000006_sec phases=1 kV=0.24 kVA=1037.8 Pmpp=1037.8 irradiance=1 pf=1
New PVSystem.pv_XFMR-000009 bus1=bus_XFMR-000009_sec phases=1 kV=0.24 kVA=27.1 Pmpp=27.1 irradiance=1 pf=1
New PVSystem.pv_XFMR-000010 bus1=bus_XFMR-000010_sec phases=1 kV=0.24 kVA=104.3 Pmpp=104.3 irradiance=1 pf=1
New PVSystem.pv_XFMR-000012 bus1=bus_XFMR-000012_sec phases=1 kV=0.24 kVA=105.6 Pmpp=105.6 irradiance=1 pf=1
New PVSystem.pv_XFMR-000013 bus1=bus_XFMR-000013_sec phases=1 kV=0.24 kVA=51.7 Pmpp=51.7 irradiance=1 pf=1
New PVSystem.pv_XFMR-000014 bus1=bus_XFMR-000014_sec phases=1 kV=0.24 kVA=1462.4 Pmpp=1462.4 irradiance=1 pf=1
New PVSystem.pv_XFMR-000015 bus1=bus_XFMR-000015_sec phases=1 kV=0.24 kVA=198.5 Pmpp=198.5 irradiance=1 pf=1
New PVSystem.pv_XFMR-000016 bus1=bus_XFMR-000016_sec phases=1 kV=0.24 kVA=121.8 Pmpp=121.8 irradiance=1 pf=1
New PVSystem.pv_XFMR-000017 bus1=bus_XFMR-000017_sec phases=1 kV=0.24 kVA=218.9 Pmpp=218.9 irradiance=1 pf=1
New PVSystem.pv_XFMR-000018 bus1=bus_XFMR-000018_sec phases=1 kV=0.24 kVA=105.1 Pmpp=105.1 irradiance=1 pf=1
New PVSystem.pv_XFMR-000020 bus1=bus_XFMR-000020_sec phases=1 kV=0.24 kVA=52.5 Pmpp=52.5 irradiance=1 pf=1
New PVSystem.pv_XFMR-000021 bus1=bus_XFMR-000021_sec phases=1 kV=0.24 kVA=1076.7 Pmpp=1076.7 irradiance=1 pf=1
New PVSystem.pv_XFMR-000022 bus1=bus_XFMR-000022_sec phases=1 kV=0.24 kVA=74.8 Pmpp=74.8 irradiance=1 pf=1
New PVSystem.pv_XFMR-000025 bus1=bus_XFMR-000025_sec phases=1 kV=0.24 kVA=84.9 Pmpp=84.9 irradiance=1 pf=1
New PVSystem.pv_XFMR-000026 bus1=bus_XFMR-000026_sec phases=1 kV=0.24 kVA=21.0 Pmpp=21.0 irradiance=1 pf=1
New PVSystem.pv_XFMR-000027 bus1=bus_XFMR-000027_sec phases=1 kV=0.24 kVA=137.8 Pmpp=137.8 irradiance=1 pf=1
New PVSystem.pv_XFMR-000029 bus1=bus_XFMR-000029_sec phases=1 kV=0.24 kVA=95.1 Pmpp=95.1 irradiance=1 pf=1
New PVSystem.pv_XFMR-000036 bus1=bus_XFMR-000036_sec phases=1 kV=0.24 kVA=320.8 Pmpp=320.8 irradiance=1 pf=1
New PVSystem.pv_XFMR-000037 bus1=bus_XFMR-000037_sec phases=1 kV=0.24 kVA=119.1 Pmpp=119.1 irradiance=1 pf=1
New PVSystem.pv_XFMR-000038 bus1=bus_XFMR-000038_sec phases=1 kV=0.24 kVA=32.1 Pmpp=32.1 irradiance=1 pf=1
New PVSystem.pv_XFMR-000040 bus1=bus_XFMR-000040_sec phases=1 kV=0.24 kVA=32.5 Pmpp=32.5 irradiance=1 pf=1
New PVSystem.pv_XFMR-000042 bus1=bus_XFMR-000042_sec phases=1 kV=0.24 kVA=33.9 Pmpp=33.9 irradiance=1 pf=1
New PVSystem.pv_XFMR-000043 bus1=bus_XFMR-000043_sec phases=1 kV=0.24 kVA=58.9 Pmpp=58.9 irradiance=1 pf=1
New PVSystem.pv_XFMR-000045 bus1=bus_XFMR-000045_sec phases=1 kV=0.24 kVA=94.1 Pmpp=94.1 irradiance=1 pf=1
New PVSystem.pv_XFMR-000046 bus1=bus_XFMR-000046_sec phases=1 kV=0.24 kVA=77.6 Pmpp=77.6 irradiance=1 pf=1
New PVSystem.pv_XFMR-000048 bus1=bus_XFMR-000048_sec phases=1 kV=0.24 kVA=88.6 Pmpp=88.6 irradiance=1 pf=1
New PVSystem.pv_XFMR-000049 bus1=bus_XFMR-000049_sec phases=1 kV=0.24 kVA=890.5 Pmpp=890.5 irradiance=1 pf=1
New PVSystem.pv_XFMR-000053 bus1=bus_XFMR-000053_sec phases=1 kV=0.24 kVA=146.0 Pmpp=146.0 irradiance=1 pf=1
New PVSystem.pv_XFMR-000054 bus1=bus_XFMR-000054_sec phases=1 kV=0.24 kVA=45.9 Pmpp=45.9 irradiance=1 pf=1
New PVSystem.pv_XFMR-000055 bus1=bus_XFMR-000055_sec phases=1 kV=0.24 kVA=57.4 Pmpp=57.4 irradiance=1 pf=1
New PVSystem.pv_XFMR-000057 bus1=bus_XFMR-000057_sec phases=1 kV=0.24 kVA=121.8 Pmpp=121.8 irradiance=1 pf=1
New PVSystem.pv_XFMR-000058 bus1=bus_XFMR-000058_sec phases=1 kV=0.24 kVA=34.1 Pmpp=34.1 irradiance=1 pf=1
New PVSystem.pv_XFMR-000060 bus1=bus_XFMR-000060_sec phases=1 kV=0.24 kVA=92.7 Pmpp=92.7 irradiance=1 pf=1
New PVSystem.pv_XFMR-000061 bus1=bus_XFMR-000061_sec phases=1 kV=0.24 kVA=585.5 Pmpp=585.5 irradiance=1 pf=1
New PVSystem.pv_XFMR-000062 bus1=bus_XFMR-000062_sec phases=1 kV=0.24 kVA=41.8 Pmpp=41.8 irradiance=1 pf=1
New PVSystem.pv_XFMR-000063 bus1=bus_XFMR-000063_sec phases=1 kV=0.24 kVA=49.9 Pmpp=49.9 irradiance=1 pf=1
New PVSystem.pv_XFMR-000064 bus1=bus_XFMR-000064_sec phases=1 kV=0.24 kVA=16.7 Pmpp=16.7 irradiance=1 pf=1
New PVSystem.pv_XFMR-000065 bus1=bus_XFMR-000065_sec phases=1 kV=0.24 kVA=134.6 Pmpp=134.6 irradiance=1 pf=1
New PVSystem.pv_XFMR-000066 bus1=bus_XFMR-000066_sec phases=1 kV=0.24 kVA=44.8 Pmpp=44.8 irradiance=1 pf=1
New PVSystem.pv_XFMR-000067 bus1=bus_XFMR-000067_sec phases=1 kV=0.24 kVA=596.3 Pmpp=596.3 irradiance=1 pf=1
New PVSystem.pv_XFMR-000068 bus1=bus_XFMR-000068_sec phases=1 kV=0.24 kVA=37.9 Pmpp=37.9 irradiance=1 pf=1
New PVSystem.pv_XFMR-000069 bus1=bus_XFMR-000069_sec phases=1 kV=0.24 kVA=26.2 Pmpp=26.2 irradiance=1 pf=1
New PVSystem.pv_XFMR-000075 bus1=bus_XFMR-000075_sec phases=1 kV=0.24 kVA=77.2 Pmpp=77.2 irradiance=1 pf=1
New PVSystem.pv_XFMR-000078 bus1=bus_XFMR-000078_sec phases=1 kV=0.24 kVA=50.5 Pmpp=50.5 irradiance=1 pf=1
New PVSystem.pv_XFMR-000079 bus1=bus_XFMR-000079_sec phases=1 kV=0.24 kVA=3958.4 Pmpp=3958.4 irradiance=1 pf=1
New PVSystem.pv_XFMR-000083 bus1=bus_XFMR-000083_sec phases=1 kV=0.24 kVA=2915.1 Pmpp=2915.1 irradiance=1 pf=1
New PVSystem.pv_XFMR-000084 bus1=bus_XFMR-000084_sec phases=1 kV=0.24 kVA=1386.5 Pmpp=1386.5 irradiance=1 pf=1
New PVSystem.pv_XFMR-000085 bus1=bus_XFMR-000085_sec phases=1 kV=0.24 kVA=68.9 Pmpp=68.9 irradiance=1 pf=1
New PVSystem.pv_XFMR-000087 bus1=bus_XFMR-000087_sec phases=1 kV=0.24 kVA=29.0 Pmpp=29.0 irradiance=1 pf=1
New PVSystem.pv_XFMR-000089 bus1=bus_XFMR-000089_sec phases=1 kV=0.24 kVA=1082.6 Pmpp=1082.6 irradiance=1 pf=1
New PVSystem.pv_XFMR-000090 bus1=bus_XFMR-000090_sec phases=1 kV=0.24 kVA=64.0 Pmpp=64.0 irradiance=1 pf=1
New PVSystem.pv_XFMR-000091 bus1=bus_XFMR-000091_sec phases=1 kV=0.24 kVA=213.8 Pmpp=213.8 irradiance=1 pf=1
New PVSystem.pv_XFMR-000092 bus1=bus_XFMR-000092_sec phases=1 kV=0.24 kVA=52.5 Pmpp=52.5 irradiance=1 pf=1
New PVSystem.pv_XFMR-000095 bus1=bus_XFMR-000095_sec phases=1 kV=0.24 kVA=341.9 Pmpp=341.9 irradiance=1 pf=1
New PVSystem.pv_XFMR-000096 bus1=bus_XFMR-000096_sec phases=1 kV=0.24 kVA=472.9 Pmpp=472.9 irradiance=1 pf=1
New PVSystem.pv_XFMR-000097 bus1=bus_XFMR-000097_sec phases=1 kV=0.24 kVA=143.4 Pmpp=143.4 irradiance=1 pf=1
New PVSystem.pv_XFMR-000099 bus1=bus_XFMR-000099_sec phases=1 kV=0.24 kVA=65.4 Pmpp=65.4 irradiance=1 pf=1
New PVSystem.pv_XFMR-000102 bus1=bus_XFMR-000102_sec phases=1 kV=0.24 kVA=464.9 Pmpp=464.9 irradiance=1 pf=1
New PVSystem.pv_XFMR-000104 bus1=bus_XFMR-000104_sec phases=1 kV=0.24 kVA=126.1 Pmpp=126.1 irradiance=1 pf=1
New PVSystem.pv_XFMR-000106 bus1=bus_XFMR-000106_sec phases=1 kV=0.24 kVA=22.1 Pmpp=22.1 irradiance=1 pf=1
New PVSystem.pv_XFMR-000107 bus1=bus_XFMR-000107_sec phases=1 kV=0.24 kVA=54.9 Pmpp=54.9 irradiance=1 pf=1
New PVSystem.pv_XFMR-000108 bus1=bus_XFMR-000108_sec phases=1 kV=0.24 kVA=64.9 Pmpp=64.9 irradiance=1 pf=1
New PVSystem.pv_XFMR-000109 bus1=bus_XFMR-000109_sec phases=1 kV=0.24 kVA=18.0 Pmpp=18.0 irradiance=1 pf=1
New PVSystem.pv_XFMR-000111 bus1=bus_XFMR-000111_sec phases=1 kV=0.24 kVA=1099.0 Pmpp=1099.0 irradiance=1 pf=1
New PVSystem.pv_XFMR-000112 bus1=bus_XFMR-000112_sec phases=1 kV=0.24 kVA=3913.9 Pmpp=3913.9 irradiance=1 pf=1
New PVSystem.pv_XFMR-000115 bus1=bus_XFMR-000115_sec phases=1 kV=0.24 kVA=184.3 Pmpp=184.3 irradiance=1 pf=1
New PVSystem.pv_XFMR-000116 bus1=bus_XFMR-000116_sec phases=1 kV=0.24 kVA=26.6 Pmpp=26.6 irradiance=1 pf=1
New PVSystem.pv_XFMR-000117 bus1=bus_XFMR-000117_sec phases=1 kV=0.24 kVA=189.9 Pmpp=189.9 irradiance=1 pf=1
New PVSystem.pv_XFMR-000119 bus1=bus_XFMR-000119_sec phases=1 kV=0.24 kVA=34.1 Pmpp=34.1 irradiance=1 pf=1
New PVSystem.pv_XFMR-000120 bus1=bus_XFMR-000120_sec phases=1 kV=0.24 kVA=104.6 Pmpp=104.6 irradiance=1 pf=1
New PVSystem.pv_XFMR-000125 bus1=bus_XFMR-000125_sec phases=1 kV=0.24 kVA=70.5 Pmpp=70.5 irradiance=1 pf=1
New PVSystem.pv_XFMR-000126 bus1=bus_XFMR-000126_sec phases=1 kV=0.24 kVA=64.9 Pmpp=64.9 irradiance=1 pf=1
New PVSystem.pv_XFMR-000128 bus1=bus_XFMR-000128_sec phases=1 kV=0.24 kVA=43.7 Pmpp=43.7 irradiance=1 pf=1
New PVSystem.pv_XFMR-000129 bus1=bus_XFMR-000129_sec phases=1 kV=0.24 kVA=106.2 Pmpp=106.2 irradiance=1 pf=1
New PVSystem.pv_XFMR-000131 bus1=bus_XFMR-000131_sec phases=1 kV=0.24 kVA=583.8 Pmpp=583.8 irradiance=1 pf=1
New PVSystem.pv_XFMR-000132 bus1=bus_XFMR-000132_sec phases=1 kV=0.24 kVA=3744.8 Pmpp=3744.8 irradiance=1 pf=1
New PVSystem.pv_XFMR-000133 bus1=bus_XFMR-000133_sec phases=1 kV=0.24 kVA=1291.1 Pmpp=1291.1 irradiance=1 pf=1
New PVSystem.pv_XFMR-000134 bus1=bus_XFMR-000134_sec phases=1 kV=0.24 kVA=45.1 Pmpp=45.1 irradiance=1 pf=1
New PVSystem.pv_XFMR-000135 bus1=bus_XFMR-000135_sec phases=1 kV=0.24 kVA=29.5 Pmpp=29.5 irradiance=1 pf=1
New PVSystem.pv_XFMR-000137 bus1=bus_XFMR-000137_sec phases=1 kV=0.24 kVA=106.8 Pmpp=106.8 irradiance=1 pf=1
New PVSystem.pv_XFMR-000139 bus1=bus_XFMR-000139_sec phases=1 kV=0.24 kVA=2278.2 Pmpp=2278.2 irradiance=1 pf=1
New PVSystem.pv_XFMR-000140 bus1=bus_XFMR-000140_sec phases=1 kV=0.24 kVA=165.7 Pmpp=165.7 irradiance=1 pf=1
New PVSystem.pv_XFMR-000141 bus1=bus_XFMR-000141_sec phases=1 kV=0.24 kVA=4071.8 Pmpp=4071.8 irradiance=1 pf=1
New PVSystem.pv_XFMR-000142 bus1=bus_XFMR-000142_sec phases=1 kV=0.24 kVA=86.9 Pmpp=86.9 irradiance=1 pf=1
New PVSystem.pv_XFMR-000144 bus1=bus_XFMR-000144_sec phases=1 kV=0.24 kVA=755.7 Pmpp=755.7 irradiance=1 pf=1
New PVSystem.pv_XFMR-000145 bus1=bus_XFMR-000145_sec phases=1 kV=0.24 kVA=174.9 Pmpp=174.9 irradiance=1 pf=1
New PVSystem.pv_XFMR-000148 bus1=bus_XFMR-000148_sec phases=1 kV=0.24 kVA=233.0 Pmpp=233.0 irradiance=1 pf=1
New PVSystem.pv_XFMR-000149 bus1=bus_XFMR-000149_sec phases=1 kV=0.24 kVA=33.5 Pmpp=33.5 irradiance=1 pf=1
New PVSystem.pv_XFMR-000155 bus1=bus_XFMR-000155_sec phases=1 kV=0.24 kVA=84.6 Pmpp=84.6 irradiance=1 pf=1
New PVSystem.pv_XFMR-000156 bus1=bus_XFMR-000156_sec phases=1 kV=0.24 kVA=344.4 Pmpp=344.4 irradiance=1 pf=1
New PVSystem.pv_XFMR-000157 bus1=bus_XFMR-000157_sec phases=1 kV=0.24 kVA=100.2 Pmpp=100.2 irradiance=1 pf=1
New PVSystem.pv_XFMR-000158 bus1=bus_XFMR-000158_sec phases=1 kV=0.24 kVA=1880.4 Pmpp=1880.4 irradiance=1 pf=1
New PVSystem.pv_XFMR-000160 bus1=bus_XFMR-000160_sec phases=1 kV=0.24 kVA=61.8 Pmpp=61.8 irradiance=1 pf=1
New PVSystem.pv_XFMR-000161 bus1=bus_XFMR-000161_sec phases=1 kV=0.24 kVA=44.2 Pmpp=44.2 irradiance=1 pf=1
New PVSystem.pv_XFMR-000164 bus1=bus_XFMR-000164_sec phases=1 kV=0.24 kVA=2122.2 Pmpp=2122.2 irradiance=1 pf=1
New PVSystem.pv_XFMR-000165 bus1=bus_XFMR-000165_sec phases=1 kV=0.24 kVA=56.1 Pmpp=56.1 irradiance=1 pf=1
New PVSystem.pv_XFMR-000166 bus1=bus_XFMR-000166_sec phases=1 kV=0.24 kVA=63.6 Pmpp=63.6 irradiance=1 pf=1
New PVSystem.pv_XFMR-000169 bus1=bus_XFMR-000169_sec phases=1 kV=0.24 kVA=72.2 Pmpp=72.2 irradiance=1 pf=1
New PVSystem.pv_XFMR-000170 bus1=bus_XFMR-000170_sec phases=1 kV=0.24 kVA=49.6 Pmpp=49.6 irradiance=1 pf=1
New PVSystem.pv_XFMR-000171 bus1=bus_XFMR-000171_sec phases=1 kV=0.24 kVA=141.4 Pmpp=141.4 irradiance=1 pf=1
New PVSystem.pv_XFMR-000172 bus1=bus_XFMR-000172_sec phases=1 kV=0.24 kVA=57.1 Pmpp=57.1 irradiance=1 pf=1
New PVSystem.pv_XFMR-000173 bus1=bus_XFMR-000173_sec phases=1 kV=0.24 kVA=1425.7 Pmpp=1425.7 irradiance=1 pf=1
New PVSystem.pv_XFMR-000175 bus1=bus_XFMR-000175_sec phases=1 kV=0.24 kVA=44.8 Pmpp=44.8 irradiance=1 pf=1
New PVSystem.pv_XFMR-000178 bus1=bus_XFMR-000178_sec phases=1 kV=0.24 kVA=173.8 Pmpp=173.8 irradiance=1 pf=1
New PVSystem.pv_XFMR-000179 bus1=bus_XFMR-000179_sec phases=1 kV=0.24 kVA=1731.8 Pmpp=1731.8 irradiance=1 pf=1
New PVSystem.pv_XFMR-000180 bus1=bus_XFMR-000180_sec phases=1 kV=0.24 kVA=3575.0 Pmpp=3575.0 irradiance=1 pf=1
New PVSystem.pv_XFMR-000181 bus1=bus_XFMR-000181_sec phases=1 kV=0.24 kVA=59.5 Pmpp=59.5 irradiance=1 pf=1
New PVSystem.pv_XFMR-000183 bus1=bus_XFMR-000183_sec phases=1 kV=0.24 kVA=873.3 Pmpp=873.3 irradiance=1 pf=1
New PVSystem.pv_XFMR-000184 bus1=bus_XFMR-000184_sec phases=1 kV=0.24 kVA=3769.7 Pmpp=3769.7 irradiance=1 pf=1
New PVSystem.pv_XFMR-000185 bus1=bus_XFMR-000185_sec phases=1 kV=0.24 kVA=59.0 Pmpp=59.0 irradiance=1 pf=1
New PVSystem.pv_XFMR-000187 bus1=bus_XFMR-000187_sec phases=1 kV=0.24 kVA=1944.1 Pmpp=1944.1 irradiance=1 pf=1
New PVSystem.pv_XFMR-000188 bus1=bus_XFMR-000188_sec phases=1 kV=0.24 kVA=254.2 Pmpp=254.2 irradiance=1 pf=1
New PVSystem.pv_XFMR-000194 bus1=bus_XFMR-000194_sec phases=1 kV=0.24 kVA=62.7 Pmpp=62.7 irradiance=1 pf=1
New PVSystem.pv_XFMR-000195 bus1=bus_XFMR-000195_sec phases=1 kV=0.24 kVA=60.4 Pmpp=60.4 irradiance=1 pf=1
New PVSystem.pv_XFMR-000196 bus1=bus_XFMR-000196_sec phases=1 kV=0.24 kVA=158.9 Pmpp=158.9 irradiance=1 pf=1
New PVSystem.pv_XFMR-000198 bus1=bus_XFMR-000198_sec phases=1 kV=0.24 kVA=1417.0 Pmpp=1417.0 irradiance=1 pf=1
New PVSystem.pv_XFMR-000199 bus1=bus_XFMR-000199_sec phases=1 kV=0.24 kVA=141.7 Pmpp=141.7 irradiance=1 pf=1
New PVSystem.pv_XFMR-000202 bus1=bus_XFMR-000202_sec phases=1 kV=0.24 kVA=75.3 Pmpp=75.3 irradiance=1 pf=1
New PVSystem.pv_XFMR-000204 bus1=bus_XFMR-000204_sec phases=1 kV=0.24 kVA=178.7 Pmpp=178.7 irradiance=1 pf=1
New PVSystem.pv_XFMR-000206 bus1=bus_XFMR-000206_sec phases=1 kV=0.24 kVA=79.9 Pmpp=79.9 irradiance=1 pf=1
New PVSystem.pv_XFMR-000208 bus1=bus_XFMR-000208_sec phases=1 kV=0.24 kVA=128.3 Pmpp=128.3 irradiance=1 pf=1
New PVSystem.pv_XFMR-000210 bus1=bus_XFMR-000210_sec phases=1 kV=0.24 kVA=64.9 Pmpp=64.9 irradiance=1 pf=1
New PVSystem.pv_XFMR-000212 bus1=bus_XFMR-000212_sec phases=1 kV=0.24 kVA=70.1 Pmpp=70.1 irradiance=1 pf=1
New PVSystem.pv_XFMR-000217 bus1=bus_XFMR-000217_sec phases=1 kV=0.24 kVA=56.8 Pmpp=56.8 irradiance=1 pf=1
New PVSystem.pv_XFMR-000219 bus1=bus_XFMR-000219_sec phases=1 kV=0.24 kVA=63.0 Pmpp=63.0 irradiance=1 pf=1
New PVSystem.pv_XFMR-000221 bus1=bus_XFMR-000221_sec phases=1 kV=0.24 kVA=29.5 Pmpp=29.5 irradiance=1 pf=1
New PVSystem.pv_XFMR-000223 bus1=bus_XFMR-000223_sec phases=1 kV=0.24 kVA=63.5 Pmpp=63.5 irradiance=1 pf=1
New PVSystem.pv_XFMR-000225 bus1=bus_XFMR-000225_sec phases=1 kV=0.24 kVA=140.7 Pmpp=140.7 irradiance=1 pf=1
New PVSystem.pv_XFMR-000228 bus1=bus_XFMR-000228_sec phases=1 kV=0.24 kVA=102.8 Pmpp=102.8 irradiance=1 pf=1
New PVSystem.pv_XFMR-000230 bus1=bus_XFMR-000230_sec phases=1 kV=0.24 kVA=165.9 Pmpp=165.9 irradiance=1 pf=1
New PVSystem.pv_XFMR-000232 bus1=bus_XFMR-000232_sec phases=1 kV=0.24 kVA=48.7 Pmpp=48.7 irradiance=1 pf=1
New PVSystem.pv_XFMR-000238 bus1=bus_XFMR-000238_sec phases=1 kV=0.24 kVA=73.1 Pmpp=73.1 irradiance=1 pf=1
New PVSystem.pv_XFMR-000239 bus1=bus_XFMR-000239_sec phases=1 kV=0.24 kVA=90.6 Pmpp=90.6 irradiance=1 pf=1
New PVSystem.pv_XFMR-000245 bus1=bus_XFMR-000245_sec phases=1 kV=0.24 kVA=14.8 Pmpp=14.8 irradiance=1 pf=1
New PVSystem.pv_XFMR-000247 bus1=bus_XFMR-000247_sec phases=1 kV=0.24 kVA=2562.9 Pmpp=2562.9 irradiance=1 pf=1
New PVSystem.pv_XFMR-000250 bus1=bus_XFMR-000250_sec phases=1 kV=0.24 kVA=39.4 Pmpp=39.4 irradiance=1 pf=1
New PVSystem.pv_XFMR-000252 bus1=bus_XFMR-000252_sec phases=1 kV=0.24 kVA=56.8 Pmpp=56.8 irradiance=1 pf=1
New PVSystem.pv_XFMR-000253 bus1=bus_XFMR-000253_sec phases=1 kV=0.24 kVA=3143.5 Pmpp=3143.5 irradiance=1 pf=1
New PVSystem.pv_XFMR-000255 bus1=bus_XFMR-000255_sec phases=1 kV=0.24 kVA=44.7 Pmpp=44.7 irradiance=1 pf=1
New PVSystem.pv_XFMR-000260 bus1=bus_XFMR-000260_sec phases=1 kV=0.24 kVA=60.4 Pmpp=60.4 irradiance=1 pf=1
New PVSystem.pv_XFMR-000265 bus1=bus_XFMR-000265_sec phases=1 kV=0.24 kVA=81.4 Pmpp=81.4 irradiance=1 pf=1
New PVSystem.pv_XFMR-000266 bus1=bus_XFMR-000266_sec phases=1 kV=0.24 kVA=24.1 Pmpp=24.1 irradiance=1 pf=1
New PVSystem.pv_XFMR-000268 bus1=bus_XFMR-000268_sec phases=1 kV=0.24 kVA=617.7 Pmpp=617.7 irradiance=1 pf=1
New PVSystem.pv_XFMR-000272 bus1=bus_XFMR-000272_sec phases=1 kV=0.24 kVA=67.7 Pmpp=67.7 irradiance=1 pf=1
New PVSystem.pv_XFMR-000273 bus1=bus_XFMR-000273_sec phases=1 kV=0.24 kVA=24.6 Pmpp=24.6 irradiance=1 pf=1
New PVSystem.pv_XFMR-000274 bus1=bus_XFMR-000274_sec phases=1 kV=0.24 kVA=162.4 Pmpp=162.4 irradiance=1 pf=1
New PVSystem.pv_XFMR-000275 bus1=bus_XFMR-000275_sec phases=1 kV=0.24 kVA=164.1 Pmpp=164.1 irradiance=1 pf=1
New PVSystem.pv_XFMR-000277 bus1=bus_XFMR-000277_sec phases=1 kV=0.24 kVA=67.9 Pmpp=67.9 irradiance=1 pf=1
New PVSystem.pv_XFMR-000278 bus1=bus_XFMR-000278_sec phases=1 kV=0.24 kVA=49.0 Pmpp=49.0 irradiance=1 pf=1
New PVSystem.pv_XFMR-000280 bus1=bus_XFMR-000280_sec phases=1 kV=0.24 kVA=170.7 Pmpp=170.7 irradiance=1 pf=1
New PVSystem.pv_XFMR-000282 bus1=bus_XFMR-000282_sec phases=1 kV=0.24 kVA=51.1 Pmpp=51.1 irradiance=1 pf=1
New PVSystem.pv_XFMR-000284 bus1=bus_XFMR-000284_sec phases=1 kV=0.24 kVA=1817.9 Pmpp=1817.9 irradiance=1 pf=1
New PVSystem.pv_XFMR-000287 bus1=bus_XFMR-000287_sec phases=1 kV=0.24 kVA=72.6 Pmpp=72.6 irradiance=1 pf=1
New PVSystem.pv_XFMR-000290 bus1=bus_XFMR-000290_sec phases=1 kV=0.24 kVA=117.3 Pmpp=117.3 irradiance=1 pf=1
New PVSystem.pv_XFMR-000291 bus1=bus_XFMR-000291_sec phases=1 kV=0.24 kVA=38.5 Pmpp=38.5 irradiance=1 pf=1
New PVSystem.pv_XFMR-000292 bus1=bus_XFMR-000292_sec phases=1 kV=0.24 kVA=221.7 Pmpp=221.7 irradiance=1 pf=1
New PVSystem.pv_XFMR-000293 bus1=bus_XFMR-000293_sec phases=1 kV=0.24 kVA=117.3 Pmpp=117.3 irradiance=1 pf=1
New PVSystem.pv_XFMR-000294 bus1=bus_XFMR-000294_sec phases=1 kV=0.24 kVA=136.6 Pmpp=136.6 irradiance=1 pf=1
New PVSystem.pv_XFMR-000297 bus1=bus_XFMR-000297_sec phases=1 kV=0.24 kVA=72.3 Pmpp=72.3 irradiance=1 pf=1
New PVSystem.pv_XFMR-000299 bus1=bus_XFMR-000299_sec phases=1 kV=0.24 kVA=1623.1 Pmpp=1623.1 irradiance=1 pf=1
New PVSystem.pv_XFMR-000304 bus1=bus_XFMR-000304_sec phases=1 kV=0.24 kVA=40.2 Pmpp=40.2 irradiance=1 pf=1
New PVSystem.pv_XFMR-000305 bus1=bus_XFMR-000305_sec phases=1 kV=0.24 kVA=73.8 Pmpp=73.8 irradiance=1 pf=1
New PVSystem.pv_XFMR-000306 bus1=bus_XFMR-000306_sec phases=1 kV=0.24 kVA=104.6 Pmpp=104.6 irradiance=1 pf=1
New PVSystem.pv_XFMR-000309 bus1=bus_XFMR-000309_sec phases=1 kV=0.24 kVA=18.9 Pmpp=18.9 irradiance=1 pf=1
New PVSystem.pv_XFMR-000310 bus1=bus_XFMR-000310_sec phases=1 kV=0.24 kVA=25.3 Pmpp=25.3 irradiance=1 pf=1
New PVSystem.pv_XFMR-000311 bus1=bus_XFMR-000311_sec phases=1 kV=0.24 kVA=2130.5 Pmpp=2130.5 irradiance=1 pf=1
New PVSystem.pv_XFMR-000312 bus1=bus_XFMR-000312_sec phases=1 kV=0.24 kVA=48.4 Pmpp=48.4 irradiance=1 pf=1
New PVSystem.pv_XFMR-000313 bus1=bus_XFMR-000313_sec phases=1 kV=0.24 kVA=45.9 Pmpp=45.9 irradiance=1 pf=1
New PVSystem.pv_XFMR-000315 bus1=bus_XFMR-000315_sec phases=1 kV=0.24 kVA=106.6 Pmpp=106.6 irradiance=1 pf=1
New PVSystem.pv_XFMR-000316 bus1=bus_XFMR-000316_sec phases=1 kV=0.24 kVA=20.7 Pmpp=20.7 irradiance=1 pf=1
New PVSystem.pv_XFMR-000319 bus1=bus_XFMR-000319_sec phases=1 kV=0.24 kVA=63.6 Pmpp=63.6 irradiance=1 pf=1
New PVSystem.pv_XFMR-000320 bus1=bus_XFMR-000320_sec phases=1 kV=0.24 kVA=2272.5 Pmpp=2272.5 irradiance=1 pf=1
New PVSystem.pv_XFMR-000321 bus1=bus_XFMR-000321_sec phases=1 kV=0.24 kVA=103.1 Pmpp=103.1 irradiance=1 pf=1
New PVSystem.pv_XFMR-000323 bus1=bus_XFMR-000323_sec phases=1 kV=0.24 kVA=2301.7 Pmpp=2301.7 irradiance=1 pf=1
New PVSystem.pv_XFMR-000325 bus1=bus_XFMR-000325_sec phases=1 kV=0.24 kVA=161.9 Pmpp=161.9 irradiance=1 pf=1
New PVSystem.pv_XFMR-000326 bus1=bus_XFMR-000326_sec phases=1 kV=0.24 kVA=99.4 Pmpp=99.4 irradiance=1 pf=1
New PVSystem.pv_XFMR-000329 bus1=bus_XFMR-000329_sec phases=1 kV=0.24 kVA=66.1 Pmpp=66.1 irradiance=1 pf=1
New PVSystem.pv_XFMR-000330 bus1=bus_XFMR-000330_sec phases=1 kV=0.24 kVA=104.3 Pmpp=104.3 irradiance=1 pf=1
New PVSystem.pv_XFMR-000331 bus1=bus_XFMR-000331_sec phases=1 kV=0.24 kVA=2598.3 Pmpp=2598.3 irradiance=1 pf=1
New PVSystem.pv_XFMR-000335 bus1=bus_XFMR-000335_sec phases=1 kV=0.24 kVA=115.7 Pmpp=115.7 irradiance=1 pf=1
New PVSystem.pv_XFMR-000336 bus1=bus_XFMR-000336_sec phases=1 kV=0.24 kVA=33.5 Pmpp=33.5 irradiance=1 pf=1
New PVSystem.pv_XFMR-000337 bus1=bus_XFMR-000337_sec phases=1 kV=0.24 kVA=160.6 Pmpp=160.6 irradiance=1 pf=1
New PVSystem.pv_XFMR-000339 bus1=bus_XFMR-000339_sec phases=1 kV=0.24 kVA=111.5 Pmpp=111.5 irradiance=1 pf=1
New PVSystem.pv_XFMR-000341 bus1=bus_XFMR-000341_sec phases=1 kV=0.24 kVA=82.7 Pmpp=82.7 irradiance=1 pf=1
New PVSystem.pv_XFMR-000342 bus1=bus_XFMR-000342_sec phases=1 kV=0.24 kVA=32.5 Pmpp=32.5 irradiance=1 pf=1
New PVSystem.pv_XFMR-000346 bus1=bus_XFMR-000346_sec phases=1 kV=0.24 kVA=39.4 Pmpp=39.4 irradiance=1 pf=1
New PVSystem.pv_XFMR-000349 bus1=bus_XFMR-000349_sec phases=1 kV=0.24 kVA=74.6 Pmpp=74.6 irradiance=1 pf=1
New PVSystem.pv_XFMR-000350 bus1=bus_XFMR-000350_sec phases=1 kV=0.24 kVA=38.9 Pmpp=38.9 irradiance=1 pf=1
New PVSystem.pv_XFMR-000352 bus1=bus_XFMR-000352_sec phases=1 kV=0.24 kVA=1220.2 Pmpp=1220.2 irradiance=1 pf=1
New PVSystem.pv_XFMR-000354 bus1=bus_XFMR-000354_sec phases=1 kV=0.24 kVA=81.7 Pmpp=81.7 irradiance=1 pf=1
New PVSystem.pv_XFMR-000355 bus1=bus_XFMR-000355_sec phases=1 kV=0.24 kVA=75.4 Pmpp=75.4 irradiance=1 pf=1
New PVSystem.pv_XFMR-000356 bus1=bus_XFMR-000356_sec phases=1 kV=0.24 kVA=73.8 Pmpp=73.8 irradiance=1 pf=1
New PVSystem.pv_XFMR-000357 bus1=bus_XFMR-000357_sec phases=1 kV=0.24 kVA=48.4 Pmpp=48.4 irradiance=1 pf=1
New PVSystem.pv_XFMR-000360 bus1=bus_XFMR-000360_sec phases=1 kV=0.24 kVA=28.9 Pmpp=28.9 irradiance=1 pf=1
New PVSystem.pv_XFMR-000362 bus1=bus_XFMR-000362_sec phases=1 kV=0.24 kVA=1207.8 Pmpp=1207.8 irradiance=1 pf=1
New PVSystem.pv_XFMR-000363 bus1=bus_XFMR-000363_sec phases=1 kV=0.24 kVA=53.2 Pmpp=53.2 irradiance=1 pf=1
New PVSystem.pv_XFMR-000365 bus1=bus_XFMR-000365_sec phases=1 kV=0.24 kVA=66.6 Pmpp=66.6 irradiance=1 pf=1
New PVSystem.pv_XFMR-000367 bus1=bus_XFMR-000367_sec phases=1 kV=0.24 kVA=955.5 Pmpp=955.5 irradiance=1 pf=1
New PVSystem.pv_XFMR-000370 bus1=bus_XFMR-000370_sec phases=1 kV=0.24 kVA=42.5 Pmpp=42.5 irradiance=1 pf=1
New PVSystem.pv_XFMR-000372 bus1=bus_XFMR-000372_sec phases=1 kV=0.24 kVA=220.4 Pmpp=220.4 irradiance=1 pf=1
New PVSystem.pv_XFMR-000373 bus1=bus_XFMR-000373_sec phases=1 kV=0.24 kVA=137.4 Pmpp=137.4 irradiance=1 pf=1
New PVSystem.pv_XFMR-000378 bus1=bus_XFMR-000378_sec phases=1 kV=0.24 kVA=195.8 Pmpp=195.8 irradiance=1 pf=1
New PVSystem.pv_XFMR-000380 bus1=bus_XFMR-000380_sec phases=1 kV=0.24 kVA=43.5 Pmpp=43.5 irradiance=1 pf=1
New PVSystem.pv_XFMR-000382 bus1=bus_XFMR-000382_sec phases=1 kV=0.24 kVA=26.9 Pmpp=26.9 irradiance=1 pf=1
New PVSystem.pv_XFMR-000383 bus1=bus_XFMR-000383_sec phases=1 kV=0.24 kVA=25.4 Pmpp=25.4 irradiance=1 pf=1
New PVSystem.pv_XFMR-000385 bus1=bus_XFMR-000385_sec phases=1 kV=0.24 kVA=22.6 Pmpp=22.6 irradiance=1 pf=1
New PVSystem.pv_XFMR-000388 bus1=bus_XFMR-000388_sec phases=1 kV=0.24 kVA=2523.9 Pmpp=2523.9 irradiance=1 pf=1
New PVSystem.pv_XFMR-000391 bus1=bus_XFMR-000391_sec phases=1 kV=0.24 kVA=659.3 Pmpp=659.3 irradiance=1 pf=1
New PVSystem.pv_XFMR-000392 bus1=bus_XFMR-000392_sec phases=1 kV=0.24 kVA=111.5 Pmpp=111.5 irradiance=1 pf=1
New PVSystem.pv_XFMR-000393 bus1=bus_XFMR-000393_sec phases=1 kV=0.24 kVA=141.2 Pmpp=141.2 irradiance=1 pf=1
New PVSystem.pv_XFMR-000402 bus1=bus_XFMR-000402_sec phases=1 kV=0.24 kVA=875.6 Pmpp=875.6 irradiance=1 pf=1
New PVSystem.pv_XFMR-000404 bus1=bus_XFMR-000404_sec phases=1 kV=0.24 kVA=2977.4 Pmpp=2977.4 irradiance=1 pf=1
New PVSystem.pv_XFMR-000405 bus1=bus_XFMR-000405_sec phases=1 kV=0.24 kVA=156.4 Pmpp=156.4 irradiance=1 pf=1
New PVSystem.pv_XFMR-000406 bus1=bus_XFMR-000406_sec phases=1 kV=0.24 kVA=103.3 Pmpp=103.3 irradiance=1 pf=1
New PVSystem.pv_XFMR-000411 bus1=bus_XFMR-000411_sec phases=1 kV=0.24 kVA=75.4 Pmpp=75.4 irradiance=1 pf=1
New PVSystem.pv_XFMR-000412 bus1=bus_XFMR-000412_sec phases=1 kV=0.24 kVA=161.6 Pmpp=161.6 irradiance=1 pf=1
New PVSystem.pv_XFMR-000414 bus1=bus_XFMR-000414_sec phases=1 kV=0.24 kVA=50.5 Pmpp=50.5 irradiance=1 pf=1
New PVSystem.pv_XFMR-000415 bus1=bus_XFMR-000415_sec phases=1 kV=0.24 kVA=127.9 Pmpp=127.9 irradiance=1 pf=1
New PVSystem.pv_XFMR-000419 bus1=bus_XFMR-000419_sec phases=1 kV=0.24 kVA=264.5 Pmpp=264.5 irradiance=1 pf=1
New PVSystem.pv_XFMR-000421 bus1=bus_XFMR-000421_sec phases=1 kV=0.24 kVA=41.6 Pmpp=41.6 irradiance=1 pf=1
New PVSystem.pv_XFMR-000422 bus1=bus_XFMR-000422_sec phases=1 kV=0.24 kVA=68.4 Pmpp=68.4 irradiance=1 pf=1
New PVSystem.pv_XFMR-000423 bus1=bus_XFMR-000423_sec phases=1 kV=0.24 kVA=145.4 Pmpp=145.4 irradiance=1 pf=1
New PVSystem.pv_XFMR-000428 bus1=bus_XFMR-000428_sec phases=1 kV=0.24 kVA=94.5 Pmpp=94.5 irradiance=1 pf=1
New PVSystem.pv_XFMR-000429 bus1=bus_XFMR-000429_sec phases=1 kV=0.24 kVA=49.6 Pmpp=49.6 irradiance=1 pf=1
New PVSystem.pv_XFMR-000431 bus1=bus_XFMR-000431_sec phases=1 kV=0.24 kVA=144.9 Pmpp=144.9 irradiance=1 pf=1
New PVSystem.pv_XFMR-000434 bus1=bus_XFMR-000434_sec phases=1 kV=0.24 kVA=104.3 Pmpp=104.3 irradiance=1 pf=1
New PVSystem.pv_XFMR-000436 bus1=bus_XFMR-000436_sec phases=1 kV=0.24 kVA=84.6 Pmpp=84.6 irradiance=1 pf=1
New PVSystem.pv_XFMR-000437 bus1=bus_XFMR-000437_sec phases=1 kV=0.24 kVA=1826.5 Pmpp=1826.5 irradiance=1 pf=1
New PVSystem.pv_XFMR-000438 bus1=bus_XFMR-000438_sec phases=1 kV=0.24 kVA=160.7 Pmpp=160.7 irradiance=1 pf=1
New PVSystem.pv_XFMR-000439 bus1=bus_XFMR-000439_sec phases=1 kV=0.24 kVA=83.9 Pmpp=83.9 irradiance=1 pf=1
New PVSystem.pv_XFMR-000441 bus1=bus_XFMR-000441_sec phases=1 kV=0.24 kVA=71.4 Pmpp=71.4 irradiance=1 pf=1
New PVSystem.pv_XFMR-000443 bus1=bus_XFMR-000443_sec phases=1 kV=0.24 kVA=121.5 Pmpp=121.5 irradiance=1 pf=1
New PVSystem.pv_XFMR-000445 bus1=bus_XFMR-000445_sec phases=1 kV=0.24 kVA=455.0 Pmpp=455.0 irradiance=1 pf=1
New PVSystem.pv_XFMR-000446 bus1=bus_XFMR-000446_sec phases=1 kV=0.24 kVA=41.5 Pmpp=41.5 irradiance=1 pf=1
New PVSystem.pv_XFMR-000447 bus1=bus_XFMR-000447_sec phases=1 kV=0.24 kVA=82.8 Pmpp=82.8 irradiance=1 pf=1
New PVSystem.pv_XFMR-000448 bus1=bus_XFMR-000448_sec phases=1 kV=0.24 kVA=771.9 Pmpp=771.9 irradiance=1 pf=1
New PVSystem.pv_XFMR-000450 bus1=bus_XFMR-000450_sec phases=1 kV=0.24 kVA=325.5 Pmpp=325.5 irradiance=1 pf=1
New PVSystem.pv_XFMR-000452 bus1=bus_XFMR-000452_sec phases=1 kV=0.24 kVA=171.7 Pmpp=171.7 irradiance=1 pf=1
New PVSystem.pv_XFMR-000453 bus1=bus_XFMR-000453_sec phases=1 kV=0.24 kVA=69.7 Pmpp=69.7 irradiance=1 pf=1
New PVSystem.pv_XFMR-000456 bus1=bus_XFMR-000456_sec phases=1 kV=0.24 kVA=103.3 Pmpp=103.3 irradiance=1 pf=1
New PVSystem.pv_XFMR-000458 bus1=bus_XFMR-000458_sec phases=1 kV=0.24 kVA=835.7 Pmpp=835.7 irradiance=1 pf=1
New PVSystem.pv_XFMR-000460 bus1=bus_XFMR-000460_sec phases=1 kV=0.24 kVA=3947.1 Pmpp=3947.1 irradiance=1 pf=1
New PVSystem.pv_XFMR-000465 bus1=bus_XFMR-000465_sec phases=1 kV=0.24 kVA=23.0 Pmpp=23.0 irradiance=1 pf=1
New PVSystem.pv_XFMR-000466 bus1=bus_XFMR-000466_sec phases=1 kV=0.24 kVA=4711.7 Pmpp=4711.7 irradiance=1 pf=1
New PVSystem.pv_XFMR-000468 bus1=bus_XFMR-000468_sec phases=1 kV=0.24 kVA=81.2 Pmpp=81.2 irradiance=1 pf=1
New PVSystem.pv_XFMR-000469 bus1=bus_XFMR-000469_sec phases=1 kV=0.24 kVA=59.0 Pmpp=59.0 irradiance=1 pf=1
New PVSystem.pv_XFMR-000471 bus1=bus_XFMR-000471_sec phases=1 kV=0.24 kVA=121.1 Pmpp=121.1 irradiance=1 pf=1
New PVSystem.pv_XFMR-000472 bus1=bus_XFMR-000472_sec phases=1 kV=0.24 kVA=99.9 Pmpp=99.9 irradiance=1 pf=1
New PVSystem.pv_XFMR-000473 bus1=bus_XFMR-000473_sec phases=1 kV=0.24 kVA=147.5 Pmpp=147.5 irradiance=1 pf=1
New PVSystem.pv_XFMR-000474 bus1=bus_XFMR-000474_sec phases=1 kV=0.24 kVA=4000.5 Pmpp=4000.5 irradiance=1 pf=1
New PVSystem.pv_XFMR-000475 bus1=bus_XFMR-000475_sec phases=1 kV=0.24 kVA=156.1 Pmpp=156.1 irradiance=1 pf=1
New PVSystem.pv_XFMR-000479 bus1=bus_XFMR-000479_sec phases=1 kV=0.24 kVA=2752.2 Pmpp=2752.2 irradiance=1 pf=1
New PVSystem.pv_XFMR-000480 bus1=bus_XFMR-000480_sec phases=1 kV=0.24 kVA=152.1 Pmpp=152.1 irradiance=1 pf=1
New PVSystem.pv_XFMR-000481 bus1=bus_XFMR-000481_sec phases=1 kV=0.24 kVA=115.0 Pmpp=115.0 irradiance=1 pf=1
New PVSystem.pv_XFMR-000482 bus1=bus_XFMR-000482_sec phases=1 kV=0.24 kVA=953.7 Pmpp=953.7 irradiance=1 pf=1
New PVSystem.pv_XFMR-000484 bus1=bus_XFMR-000484_sec phases=1 kV=0.24 kVA=2424.1 Pmpp=2424.1 irradiance=1 pf=1
New PVSystem.pv_XFMR-000485 bus1=bus_XFMR-000485_sec phases=1 kV=0.24 kVA=108.7 Pmpp=108.7 irradiance=1 pf=1
New PVSystem.pv_XFMR-000486 bus1=bus_XFMR-000486_sec phases=1 kV=0.24 kVA=88.9 Pmpp=88.9 irradiance=1 pf=1
New PVSystem.pv_XFMR-000488 bus1=bus_XFMR-000488_sec phases=1 kV=0.24 kVA=84.9 Pmpp=84.9 irradiance=1 pf=1
New PVSystem.pv_XFMR-000489 bus1=bus_XFMR-000489_sec phases=1 kV=0.24 kVA=62.2 Pmpp=62.2 irradiance=1 pf=1
New PVSystem.pv_XFMR-000490 bus1=bus_XFMR-000490_sec phases=1 kV=0.24 kVA=26.6 Pmpp=26.6 irradiance=1 pf=1
